// PDK version:/users/soft/techno/dev/IHP/sg13/SG13G2_618_rev1.3.3/
// Generated for: spectre
// Design Netlist Generated on: May  7 15:51:55 2026
// Design library name: project_EACN_SESI
// Design cell name: clock_gen
// Design view name: schematic
simulator lang=spectre
include "ade_e.scs"
global 0 vdd!
