simulator lang=spectre
include "sg13_lv_nmos.scs"
