// PDK version:/users/soft/techno/dev/IHP/sg13/SG13G2_618_rev1.3.3/
// Generated for: spectre
// Design Netlist Generated on: Apr  9 02:06:31 2026
// Design library name: cours_EACN_SESI
// Design cell name: quad_resference
// Design view name: schematic
simulator lang=spectre
include "ade_e.scs"
global 0 vdd!
