// PDK version:/users/soft/techno/dev/IHP/sg13/SG13G2_618_rev1.3.3/
// Generated for: spectre
// Design Netlist Generated on: Apr 16 17:28:53 2026
// Design library name: project_EACN_SESI
// Design cell name: ADC_SAR
// Design view name: config
simulator lang=spectre binding=vlog  
global 0 VDD! VSS! vdd!
